32 

C 0.28145 1.105436 0.806242
 C -0.427306 -0.007959 1.38416
 C 0.683331 1.112956 -0.495625
 H 0.458524 1.992404 1.404094
 C -0.683327 -1.112955 0.495626
 C -0.849136 -0.015725 2.750028
 C 0.427309 0.00796 -1.384159
 H 1.163652 2.005595 -0.88029
 C -0.281447 -1.105435 -0.806241
 H -1.163647 -2.005594 0.880292
 C -0.363816 0.941479 3.694438
 C -1.779367 -0.981128 3.246381
 C 0.849137 0.015727 -2.750028
 H -0.45852 -1.992403 -1.404093
 C -0.773158 0.925049 5.012523
 H 0.372419 1.676209 3.387974
 C -2.184447 -0.979737 4.565885
 H -2.212314 -1.710234 2.570552
 C 0.363814 -0.941478 -3.694436
 C 1.779368 0.981129 -3.246383
 C -1.687986 -0.031215 5.466686
 H -0.372699 1.660914 5.704141
 H -2.90277 -1.721456 4.903621
 C 0.773155 -0.925048 -5.012523
 H -0.37242 -1.676207 -3.387971
 C 2.184445 0.979737 -4.565887
 H 2.212317 1.710234 -2.570555
 H -2.008234 -0.03715 6.503924
 C 1.687983 0.031215 -5.466687
 H 0.372694 -1.660914 -5.704139
 H 2.902768 1.721455 -4.903625
 H 2.00823 0.037149 -6.503926

