32
rl
     C   0.313106   1.093144   0.811405
     C  -0.435034   0.002531   1.384026
     C   0.722544   1.090219  -0.488309
     H   0.556350   1.959198   1.415635
     C  -0.722542  -1.090222   0.488308
     C  -0.859733  -0.000036   2.750621
     C   0.435031  -0.002531  -1.384031
     H   1.272409   1.952985  -0.844577
     C  -0.313102  -1.093146  -0.811408
     H  -1.272409  -1.952987   0.844574
     C  -0.493312   1.042442   3.659851
     C  -1.669737  -1.050426   3.285836
     C   0.859728   0.000038  -2.750623
     H  -0.556350  -1.959200  -1.415639
     C  -0.890076   1.018564   4.982223
     H   0.128848   1.865091   3.328203
     C  -2.067716  -1.052830   4.607281
     H  -1.999861  -1.864028   2.651036
     C   0.493309  -1.042445  -3.659856
     C   1.669737   1.050425  -3.285840
     C  -1.679421  -0.026761   5.475551
     H  -0.574456   1.822970   5.641112
     H  -2.699245  -1.861605   4.962413
     C   0.890078  -1.018567  -4.982223
     H  -0.128844  -1.865090  -3.328206
     C   2.067723   1.052831  -4.607284
     H   1.999861   1.864027  -2.651039
     H  -1.986612  -0.043091   6.516632
     C   1.679425   0.026760  -5.475552
     H   0.574458  -1.822969  -5.641117
     H   2.699241   1.861605  -4.962413
     H   1.986611   0.043090  -6.516636

