32
rl
     C   0.179610   1.124476   0.779716
     C  -0.422831   0.003341   1.363716
     C   0.590010   1.121320  -0.545695
     H   0.319812   2.034479   1.353756
     C  -0.590019  -1.121314   0.545691
     C  -0.864617   0.004884   2.786601
     C   0.422831  -0.003338  -1.363717
     H   1.034256   2.028525  -0.941191
     C  -0.179614  -1.124471  -0.779719
     H  -1.034274  -2.028516   0.941186
     C  -0.374842   0.948465   3.700737
     C  -1.782889  -0.942314   3.259695
     C   0.864624  -0.004886  -2.786598
     H  -0.319817  -2.034473  -1.353755
     C  -0.784471   0.943794   5.029935
     H   0.358048   1.684432   3.389282
     C  -2.184296  -0.956728   4.590639
     H  -2.211045  -1.672745   2.581918
     C   0.374852  -0.948469  -3.700733
     C   1.782898   0.942309  -3.259690
     C  -1.685792  -0.014354   5.484653
     H  -0.383444   1.687928   5.712220
     H  -2.904891  -1.699656   4.917637
     C   0.784469  -0.943792  -5.029934
     H  -0.358030  -1.684445  -3.389273
     C   2.184299   0.956726  -4.590634
     H   2.211056   1.672736  -2.581916
     H  -1.997276  -0.027799   6.524713
     C   1.685786   0.014354  -5.484654
     H   0.383445  -1.687930  -5.712217
     H   2.904897   1.699655  -4.917639
     H   1.997259   0.027812  -6.524720

