42
rl
     C  -0.264631   0.201010   0.786494
     C  -1.352319  -0.456899   1.403176
     C   0.508651   1.093526   1.560724
     C   0.103788  -0.073436  -0.592561
     C  -1.661934  -0.211973   2.736909
     H  -1.936072  -1.203160   0.853024
     C   0.165729   1.364740   2.882462
     H   1.387233   1.559991   1.096697
     C   1.513640   0.076672  -1.084362
     C  -0.736131  -0.709541  -1.499870
     C  -0.925081   0.715534   3.503272
     H  -2.473106  -0.785547   3.197700
     H   0.764247   2.091091   3.443499
     C   1.735880   0.218932  -2.523199
     H   1.715424  -1.035110  -1.013180
     C  -0.295535  -1.012008  -2.813270
     H  -1.791711  -0.897979  -1.264353
     C  -1.273565   0.954295   4.918581
     C   0.941536  -0.563577  -3.369568
     H   2.538010   0.853548  -2.922951
     H  -1.005769  -1.546247  -3.453347
     C  -2.581562   0.708472   5.384751
     C  -0.311712   1.406022   5.844478
     C   1.259369  -0.788141  -4.803246
     C  -2.907491   0.866509   6.734309
     H  -3.363904   0.405407   4.682368
     C  -0.644171   1.587039   7.190833
     H   0.718964   1.586108   5.523359
     C   2.558031  -0.529588  -5.286089
     C   0.313955  -1.317234  -5.706010
     C  -1.937179   1.299739   7.645798
     H  -3.935477   0.671146   7.060907
     H   0.122875   1.935015   7.892692
     C   2.893716  -0.771279  -6.621769
     H   3.329540  -0.155658  -4.605388
     C   0.654887  -1.581541  -7.036205
     H  -0.713508  -1.516366  -5.390615
     H  -2.187226   1.414505   8.705658
     C   1.945400  -1.306362  -7.501391
     H   3.916222  -0.569669  -6.960354
     H  -0.099469  -2.002239  -7.711447
     H   2.208502  -1.514628  -8.544123

