62
rl
     C   0.659925  -0.001558   0.347184
     C  -0.659924   0.001555  -0.347185
     C   1.530191  -1.097523   0.272679
     C   1.103151   1.092250   1.104156
     C  -1.530194   1.097520  -0.272671
     C  -1.103146  -1.092247  -1.104166
     C   2.762129  -1.099858   0.910143
     H   1.261608  -1.981430  -0.293797
     C   2.338851   1.093119   1.735209
     H   0.487093   1.977412   1.214388
     C  -2.762133   1.099852  -0.910135
     H  -1.261614   1.981423   0.293813
     C  -2.338846  -1.093117  -1.735216
     H  -0.487085  -1.977404  -1.214406
     C   3.208489  -0.003123   1.660378
     H   3.372134  -1.990819   0.811481
     H   2.612248   1.980126   2.295158
     C  -3.208488   0.003123  -1.660377
     H  -3.372141   1.990811  -0.811463
     H  -2.612241  -1.980120  -2.295173
     C   4.530541  -0.007852   2.349170
     C  -4.530541   0.007851  -2.349169
     C   5.434677  -1.067109   2.196463
     C   4.936852   1.041029   3.185498
     C  -5.434676   1.067110  -2.196465
     C  -4.936851  -1.041030  -3.185497
     C   6.662414  -1.077224   2.840607
     H   5.200864  -1.910399   1.556737
     C   6.176072   1.041679   3.811237
     H   4.285398   1.888675   3.365710
     C  -6.662411   1.077226  -2.840610
     H  -5.200860   1.910404  -1.556742
     C  -6.176072  -1.041679  -3.811237
     H  -4.285400  -1.888678  -3.365704
     C   7.079032  -0.018386   3.657187
     H   7.298518  -1.942008   2.692397
     H   6.429262   1.900649   4.423517
     C  -7.079031   0.018386  -3.657188
     H  -7.298514   1.942012  -2.692402
     H  -6.429262  -1.900650  -4.423515
     C   8.424643  -0.012317   4.302091
     C  -8.424642   0.012316  -4.302094
     C   9.418938  -0.917778   3.905389
     C   8.760012   0.914373   5.299231
     C  -9.418935   0.917783  -3.905394
     C  -8.760013  -0.914378  -5.299228
     C  10.687668  -0.896912   4.473144
     H   9.225698  -1.634926   3.116629
     C  10.031441   0.941894   5.864561
     H   8.021931   1.623850   5.655953
     C -10.687666   0.896917  -4.473150
     H  -9.225694   1.634934  -3.116635
     C -10.031442  -0.941898  -5.864555
     H  -8.021936  -1.623858  -5.655945
     C  11.005937   0.037245   5.453690
     H  11.433143  -1.606959   4.128602
     H  10.249429   1.670092   6.639762
     C -11.005936  -0.037244  -5.453688
     H -11.433139   1.606968  -4.128608
     H -10.249433  -1.670098  -6.639753
     H  12.001204   0.057699   5.889592
     H -12.001204  -0.057697  -5.889592

