68 

O     -9.367845    0.900019    0.149030
 C     -7.244969    1.840706    0.348772
 C     -8.032915    0.710638    0.096829
 C     -2.857879   -0.482343    0.034045
 C     -1.391758   -0.239188    0.003399
 C     -5.220269    0.521547    0.044509
 C    -10.225520   -0.205389   -0.091426
 H    -10.018315   -1.003786    0.635368
 H    -10.044412   -0.606814   -1.098829
 C     -3.760947    0.526100    0.042110
 C     -5.868994    1.741432    0.316170
 C    -11.657253    0.279927    0.040813
 H    -11.820990    1.094993   -0.674494
 H    -11.794788    0.703367    1.043065
 C     -0.510079   -1.119381    0.639907
 H     -0.899020   -1.993086    1.154733
 C     -6.026021   -0.594666   -0.216347
 H     -5.579780   -1.552899   -0.452241
 C     -7.412214   -0.508341   -0.191730
 H     -7.995392   -1.396916   -0.402020
 C     -3.250257   -1.861011    0.100252
 N     -3.518020   -2.988627    0.166170
 C    -12.670250   -0.840276   -0.199097
 H    -12.515842   -1.265600   -1.199593
 H    -12.490486   -1.655338    0.514382
 C    -14.113693   -0.357798   -0.068061
 H    -14.303738    0.043952    0.933496
 H    -14.822121   -1.173488   -0.242937
 H    -14.329321    0.436121   -0.791853
 H     -7.738963    2.781953    0.564366
 C     -0.855636    0.877836   -0.646319
 H     -3.329052    1.524562    0.080752
 H     -5.271955    2.628661    0.512083
 C      0.855616   -0.878189    0.645817
 C      0.510065    1.119030   -0.640407
 H     -1.508052    1.554267   -1.190146
 H      1.508010   -1.554620    1.189670
 C      1.391750    0.238840   -0.003904
 H      0.898995    1.992729   -1.155251
 C      2.857857    0.481981   -0.034552
 C      3.760980   -0.526419   -0.042098
 C      3.250301    1.860614   -0.101321
 C      5.220303   -0.521756   -0.044305
 H      3.329178   -1.524934   -0.080405
 N      3.518090    2.988193   -0.167746
 C      5.869159   -1.741540   -0.316115
 C      6.025933    0.594450    0.216947
 C      7.245145   -1.840701   -0.348554
 H      5.272213   -2.628768   -0.512318
 C      7.412136    0.508231    0.192530
 H      5.579588    1.552586    0.453035
 H      7.739240   -2.781860   -0.564298
 C      8.032970   -0.710630   -0.096239
 H      7.995217    1.396790    0.403160
 O      9.367918   -0.899904   -0.148211
 C     10.225449    0.205675    0.091976
 C     11.657237   -0.279375   -0.040644
 H     10.017879    1.004014   -0.634775
 H     10.044552    0.607086    1.099424
 H     11.821187   -1.094649    0.674378
 H     11.794696   -0.702480   -1.043049
 C     12.670095    0.840901    0.199480
 C     14.113592    0.358729    0.067874
 H     12.515867    1.265770    1.200197
 H     12.490012    1.656241   -0.513603
 H     14.329531   -0.435466    0.791271
 H     14.303452   -0.042555   -0.933904
 H     14.821923    1.174464    0.242926

