42
rl
     N  -3.271958  -0.882526  -3.140153
     C  -2.126377  -0.831818  -2.950757
     C  -0.724803  -0.752358  -2.663801
     C   0.226580  -1.111221  -3.619809
     C  -0.364217  -0.371014  -1.328209
     C   0.048616  -1.430155  -5.004300
     H   1.247759  -1.230110  -3.259600
     C   0.978448   0.005238  -1.001147
     C  -1.321914  -0.358778  -0.274511
     C  -1.034632  -0.985391  -5.802976
     C   1.049248  -2.218996  -5.620369
     H   1.737342   0.051602  -1.775923
     C   1.321915   0.358923   0.275277
     H  -2.343228  -0.666142  -0.480949
     C  -0.978507  -0.005279   1.001142
     C  -1.099961  -1.331926  -7.142379
     H  -1.795818  -0.336802  -5.383172
     C   0.948009  -2.598346  -6.945579
     H   1.900468  -2.540917  -5.027178
     C   0.364650   0.370738   1.326856
     H   2.343142   0.666059   0.480773
     H  -1.737283  -0.051652   1.775760
     C  -0.124298  -2.148379  -7.718665
     H  -1.918554  -0.954639  -7.746731
     H   1.709235  -3.243913  -7.373259
     C   0.724438   0.752541   2.664452
     H  -0.190060  -2.422125  -8.767738
     C  -0.226199   1.111209   3.619959
     C   2.126510   0.831810   2.950579
     C  -0.047106   1.429098   5.003731
     H  -1.247892   1.230117   3.259373
     N   3.272119   0.882510   3.140132
     C   1.034363   0.985220   5.801656
     C  -1.050736   2.220079   5.620968
     C   1.099731   1.332361   7.143232
     H   1.795708   0.336990   5.383216
     C  -0.948721   2.598494   6.944722
     H  -1.900004   2.540655   5.027361
     C   0.125125   2.147958   7.719044
     H   1.918577   0.954671   7.746630
     H  -1.709071   3.243676   7.373031
     H   0.190006   2.422087   8.767482

