76 

O 2.5126717124 11.2004458731 1.6891708093
 O 7.5316978545 8.3503902134 7.2410983508
 N 3.0744523171 5.9239459493 2.6495812246
 C 2.0363511907 10.280592172 0.8278826561
 C 2.3675521847 8.9029569073 1.1095846223
 C 1.7784539778 7.9491689177 0.2487650504
 H 2.0166828542 6.9085082655 0.4220289042
 C 3.2340016927 8.4725931661 2.1809007488
 C 4.1535016502 9.2744869917 2.8572542963
 H 4.2711223637 10.2735083948 2.4590185191
 C 4.9892500627 8.9852086308 3.9846550998
 C 4.8953653454 7.8458288548 4.8274148933
 H 4.1352470182 7.0954889262 4.6518440497
 C 5.7530584903 7.6727654638 5.8912218944
 H 5.6742908302 6.8009696727 6.5323973656
 C 6.7457804708 8.6219745643 6.1787328019
 C 6.8548761275 9.7654399864 5.3758510596
 H 7.6053943823 10.5216042854 5.5748982874
 C 5.9880741138 9.9328485743 4.3110833835
 H 6.0828566833 10.8241411751 3.6957869679
 C 2.2087020922 12.5670472449 1.4811467192
 H 2.7095215087 13.103766035 2.286848298
 H 2.5854896905 12.9156248132 0.5129715891
 C 3.163661256 7.0684657835 2.4656430513
 C 8.5552602534 9.2687528855 7.5895853422
 H 9.2506673234 9.3907348298 6.7464795837
 H 8.1154592927 10.2517822212 7.8124561173
 C 9.279528895 8.7193590618 8.8048507841
 H 8.5534236882 8.5801345919 9.6148631437
 H 9.6768725575 7.7271004528 8.5594932614
 C 10.4111376914 9.6385512463 9.2664979534
 H 11.1260255749 9.7800559115 8.4450571806
 H 10.0047184076 10.6322478317 9.4973495704
 C 11.1435035958 9.0911365966 10.4902527876
 H 11.9490593911 9.7623661275 10.8039811032
 H 10.4576986922 8.970005201 11.3361999345
 H 11.5856202728 8.1114905452 10.2771234606
 C 1.2286721343 10.6156138312 -0.2382414333
 C 0.9707960998 8.2841786181 -0.8173966982
 H 1.1286076449 12.7420058023 1.5386845092
 C 0.6394450561 9.6618123832 -1.0990060674
 H 0.990506925 11.656277386 -0.4115790748
 O 0.4947060525 7.3643719452 -1.6788396128
 C -0.2272022238 10.0920366871 -2.1701135074
 C 0.7984047835 5.9977242299 -1.4706846808
 C -1.1469135081 9.289926467 -2.8461927337
 C -0.1572826045 11.4961552464 -2.454850011
 H 0.2975742695 5.4610285551 -2.2763942192
 H 0.4214705354 5.6492857503 -0.50251687
 H 1.8784761631 5.8225850303 -1.5281062384
 H -1.2650184612 8.2912078328 -2.4473340883
 C -1.9821615643 9.5789424437 -3.9739243529
 N -0.068243117 12.6406989723 -2.638780574
 C -2.9816898364 8.6318621756 -4.2999733763
 C -1.8870724856 10.7176321802 -4.8175386666
 C -3.8480267378 8.7992303848 -5.3651013837
 H -3.0773754693 7.7411074944 -3.6840372886
 C -2.7443212976 10.8906369367 -5.881699611
 H -1.1263380095 11.46742991 -4.6423025515
 H -4.5991196897 8.0435515631 -5.5638218955
 C -3.7377642349 9.9420431898 -6.1687886057
 H -2.6646501775 11.7618915378 -6.523499021
 O -4.5231585848 10.21352031 -7.2315653395
 C -5.5474550694 9.2958261777 -7.5796643891
 C -6.270939697 9.8450362224 -8.7954784889
 H -6.2431741116 9.1750422493 -6.7366437951
 H -5.1084786808 8.3122529897 -7.8017588561
 C -7.4033636794 8.9266144966 -9.2566600034
 H -5.5445467668 9.9829555473 -9.6054560969
 H -6.6673573402 10.8378616063 -8.5509206753
 C -8.1348816706 9.4737920929 -10.4810279053
 H -8.118584228 8.7864991225 -8.4352736625
 H -6.9978938651 7.932321662 -9.4866132899
 H -8.941039522 8.8031217384 -10.7944051652
 H -8.5760655927 10.4540510137 -10.2687854739
 H -7.4487549447 9.5935488541 -11.3269086713

