50 

C -2.3712131517 -0.3281529889 3.8291568459
 N -3.4922007526 -0.6102177062 3.7136465204
 C -0.992717324 0.0067365131 4.0358821303
 C -0.5495154715 1.3498215226 3.7313128258
 C -0.1018193183 -0.9237750595 4.5544929743
 C -1.1696888985 2.1685001397 2.7155992181
 C 0.5411357194 1.9204509249 4.4126094716
 C -0.2946958011 -2.2605831109 5.0583093559
 H 0.9405796953 -0.6149574931 4.5245288486
 C -0.7275017796 3.4549413289 2.4454066707
 O -2.1417952658 1.5681143537 2.0334063127
 C 0.9833232346 3.2068999521 4.1424143095
 H 0.97140833 1.3735894121 5.2411254392
 C -1.5417348225 -2.8456733931 5.3749191047
 C 0.8661495965 -3.0399023458 5.2760876478
 H -1.1577742011 4.0018116144 1.6168933599
 C 0.3631363506 4.0255801102 3.1267232322
 C -2.8865025066 2.2839029623 1.0644222732
 O 1.9554383806 3.8072835517 4.8246122544
 C -1.6093205398 -4.1409762113 5.8659239938
 H -2.458274668 -2.2848551996 5.2455566473
 H 1.8384142626 -2.610508912 5.0458685293
 C 0.7896269581 -4.332635226 5.7640500263
 C 0.8062231827 5.3687040565 2.8221503173
 H -3.6661783511 1.5981487448 0.7365370972
 H -2.2525973778 2.5636441936 0.2158467226
 H -3.3378603489 3.1788937015 1.505423115
 C 2.7002669849 3.0914882745 5.7934997024
 C -0.4527657856 -4.8944324745 6.0608778863
 H -2.5798005228 -4.566999034 6.1027769923
 H 1.6988574409 -4.9069956825 5.9152422073
 C -0.0847787386 6.2991430632 2.3036091354
 C 2.1846841318 5.7037768669 3.0288717898
 H 3.4800075545 3.7772356733 6.1212454613
 H 2.0664882641 2.8117815525 6.6421833425
 H 3.1515421131 2.1964838534 5.3524478604
 H -0.5176529912 -5.9082259371 6.4443102114
 H -1.1271632845 5.9902739901 2.3337116778
 C 0.1079774083 7.6358978142 1.7995973126
 N 3.3056758515 5.9858840372 3.1442324399
 C -1.0529285779 8.4150643614 1.5816242988
 C 1.3549760497 8.2210440938 1.4829285553
 H -2.0251669603 7.9856381637 1.8118953603
 C -0.9765064565 9.7077029394 1.0933892042
 C 1.4224640895 9.5162448229 0.9916449001
 H 2.2715666328 7.6603525393 1.6124893531
 H -1.8857895873 10.2819392662 0.9420426548
 C 0.2658430874 10.2695489401 0.7964802048
 H 2.3929115479 9.9423115128 0.7547394083
 H 0.3306586168 11.2832649274 0.4128297969

