76
rl
     H   1.606818  12.246193   9.554176
     O   1.681919   6.112075   8.314491
     N  -0.079072  10.627685  12.016080
     C   2.116950   7.383158   8.399519
     C   1.507734   8.192192   9.432905
     C   1.930056   9.545446   9.499855
     H   1.499778  10.181290  10.255039
     C   0.555661   7.596727  10.289012
     H   0.403039   6.542745  10.106713
     C  -0.193946   8.130604  11.334060
     C  -1.134152   7.339967  12.125552
     C  -1.721613   7.886573  13.287631
     H  -1.473714   8.900998  13.577954
     C  -1.504854   6.024420  11.788449
     H  -1.134205   5.577580  10.875127
     C   2.174856   5.312955   7.247174
     H   1.670894   4.351180   7.341649
     H   1.929595   5.763147   6.277414
     C  -0.102772   9.506221  11.699933
     C   3.071216   7.895104   7.554238
     C   2.867548  10.062231   8.638899
     C  -2.593936   7.163176  14.064867
     C  -2.373334   5.274630  12.569509
     H   3.259841   5.180570   7.328506
     H   3.504573   7.258490   6.802140
     C   3.492581   9.246695   7.620792
     O   3.266724  11.346676   8.679267
     C  -2.919924   5.841122  13.726995
     H  -3.038691   7.591442  14.956054
     H  -2.606622   4.252761  12.279980
     C   4.443678   9.839459   6.761542
     C   2.695945  12.191276   9.667754
     O  -3.756932   5.221265  14.575625
     C   5.169849   9.303828   5.701447
     H   4.602764  10.893169   6.942763
     H   2.943392  11.839592  10.675802
     H   3.141468  13.172074   9.503712
     C  -4.112245   3.863164  14.358429
     C   5.036713   7.940927   5.303809
     C   6.102456  10.094666   4.900831
     H  -4.691234   3.769268  13.429513
     C  -4.930012   3.437052  15.563450
     H  -3.210176   3.246166  14.253417
     N   4.969029   6.831266   4.952701
     C   6.606884   9.584148   3.685676
     C   6.534877  11.379275   5.277824
     C  -5.356835   1.972131  15.503785
     H  -5.808369   4.089656  15.638547
     H  -4.331523   3.616167  16.465316
     H   6.295527   8.598548   3.357643
     C   7.467081  10.311803   2.898007
     H   6.229120  11.794572   6.230448
     C   7.395879  12.130009   4.489230
     H  -5.950276   1.796979  14.596345
     C  -6.154113   1.552600  16.737192
     H  -4.463161   1.339729  15.422480
     H   7.842640   9.914391   1.961892
     C   7.865786  11.599358   3.283270
     H   7.696751  13.118778   4.820853
     H  -7.029611   2.195905  16.877244
     H  -6.505465   0.518879  16.657514
     H  -5.542102   1.630549  17.642762
     O   8.694779  12.226835   2.428551
     C   9.106020  13.558062   2.697215
     H   8.231396  14.206227   2.842394
     C   9.928052  14.005068   1.502370
     H   9.696715  13.589948   3.622573
     H   9.327599  13.850595   0.597429
     H  10.803616  13.350398   1.411041
     C  10.361768  15.466713   1.591485
     H   9.472641  16.102126   1.692345
     C  11.160105  15.908714   0.366765
     H  10.958313  15.622392   2.500832
     H  10.550672  15.836952  -0.540886
     H  11.502068  16.944290   0.459654
     H  12.041702  15.274993   0.221185

