50 

C -1.4924932952 -1.3381156211 -0.5080422375
 H -1.50051797 -2.3489764708 -0.8824665981
 C -1.2306490391 -0.2807185369 -1.4050176333
 C -1.7382776753 -1.1122297998 0.8318239379
 C -0.951336407 -0.4229142289 -2.7888946937
 C -1.2600045413 1.0570295646 -0.8395248613
 O -1.9718823455 -2.0977186345 1.7054870315
 C -1.7677590852 0.225515414 1.3972880935
 C -0.7524807866 -1.5642080697 -3.5534316108
 H -0.8476459446 0.5149232337 -3.3204309035
 O -1.0263781469 2.042509688 -1.7131887374
 C -1.5057577223 1.2829041346 0.5003493467
 C -1.9555471722 -3.4449407438 1.2517597427
 C -2.0473614376 0.3677814732 2.78109669
 C -0.6872200706 -2.8605383426 -2.9635220426
 C -0.5496128625 -1.5102130769 -5.0074026734
 C -1.0425072629 3.3897343027 -1.2594502588
 H -1.4976332136 2.2937537105 0.8748089493
 H -2.1381506585 -4.0530196154 2.1368263452
 H -2.7457041018 -3.6151046254 0.5133197423
 H -0.9852656986 -3.6993069689 0.8134722168
 H -2.1508753962 -0.5700176071 3.3127404192
 C -2.2467823018 1.5091460582 3.5453883488
 N -0.631659016 -3.926757982 -2.4977944821
 C -0.9423699327 -0.390101341 -5.764031111
 C 0.0453627232 -2.5885142216 -5.6888237175
 H -0.8598168227 3.9977896218 -2.144513892
 H -0.252320906 3.5597703807 -0.5210137407
 H -2.0127561832 3.6442422959 -0.8211685076
 C -2.3126779722 2.8053077368 2.9551710241
 C -2.449711073 1.4553693678 4.9993542537
 C -0.7242981456 -0.3434556172 -7.1335455877
 H -1.4534107896 0.4390000187 -5.2853379346
 H 0.350817114 -3.4698529611 -5.1326328947
 C 0.2582997593 -2.5373747761 -7.0582786495
 N -2.3688211954 3.8713738711 2.4891653784
 C -3.0452471509 2.5335242132 5.6805153078
 C -2.0564505113 0.3356018885 5.7562304317
 C -0.1193951864 -1.4130079451 -7.789982897
 H -1.0418936982 0.5303684888 -7.6949404832
 H 0.7257250105 -3.3807846296 -7.5576476694
 H -3.3511021692 3.4145947822 5.1241205724
 C -3.2582232495 2.4825641662 7.0499699245
 H -1.544983303 -0.4933425963 5.2777221857
 C -2.2745664997 0.2891327236 7.1257428224
 H 0.0472639133 -1.3746257342 -8.8621285779
 H -3.726086765 3.3258449503 7.5491467875
 C -2.8800160151 1.3585308617 7.7819256125
 H -1.9565759818 -0.5844177214 7.6873397458
 H -3.0467088186 1.3202929204 8.854072485

