76 

H 0.5846841631 12.1312464998 8.4653123347
 O 2.6165669628 6.107012098 9.0707643352
 N 0.4436448019 10.5995135976 12.1920812753
 C 2.6097994012 7.4281439726 8.7604430091
 C 1.6748761157 8.231404566 9.446119397
 C 1.6285007052 9.5977225449 9.1480244445
 H 0.886902095 10.2124479367 9.6371443507
 C 0.7843029808 7.5891932839 10.408903714
 H 0.6732075544 6.5182682819 10.2696338679
 C 0.1238800972 8.1264540368 11.4605437442
 C -0.8001285892 7.3428413874 12.317698958
 C -0.9631613122 7.6568703181 13.6753945491
 H -0.423335758 8.4972230108 14.1026594761
 C -1.5287367328 6.2706623749 11.8015133899
 H -1.4635210567 6.0327088905 10.7438730356
 C 3.4601239095 5.252531293 8.32347853
 H 3.231615142 4.2409255214 8.6600190367
 H 3.2677024592 5.336506371 7.2470870338
 C 0.3116381048 9.4994453073 11.8457941781
 C 3.4743596531 8.0011645418 7.8373317229
 C 2.4930440173 10.1707405523 8.2248957724
 C -1.7972554391 6.9092410147 14.4851751966
 C -2.3693362202 5.5071111936 12.6057729305
 H 4.5178238708 5.4671277393 8.5192538269
 H 4.2159861063 7.3864429914 7.3482432607
 C 3.4279645462 9.3674720654 7.5392185022
 O 2.4863333199 11.4918751222 7.9145708715
 C -2.5046248303 5.8219848816 13.959323508
 H -1.9188346808 7.147457046 15.5364501373
 H -2.9213122571 4.6870573149 12.1619345867
 C 4.3185180585 10.0096591604 6.5764038158
 C 1.6422487568 12.3463077852 8.6613083292
 O -3.2940991321 5.1535975737 14.8315015768
 C 4.9788442127 9.4723534828 5.5247267076
 H 4.4296886337 11.0805736426 6.7156897122
 H 1.8344011504 12.2628105482 9.7377869141
 H 1.87048339 13.357874302 8.3244663596
 C -4.0383575561 4.0431427672 14.3608476306
 C 4.7909457414 8.0993496562 5.1395683334
 C 5.9028831417 10.2558434642 4.6675017095
 H -4.7220045066 4.3612830851 13.560051235
 C -4.8182362303 3.4747413198 15.5322906893
 H -3.3589053652 3.284841855 13.9446831507
 N 4.6588160689 6.9993001237 4.79327097
 C 6.0660530031 9.9415588355 3.3098827317
 C 6.6314138095 11.3281603055 5.1835289762
 C -5.6628725032 2.2646560215 15.1316601668
 H -5.4607708882 4.2627849313 15.9432571593
 H -4.1118890811 3.1954842298 16.3234002561
 H 5.5262973347 9.1011071756 2.8827239148
 C 6.9001888275 10.6890587657 2.5000208786
 H 6.5661187734 11.5663281257 6.2411156926
 C 7.4720485068 12.0915798493 4.379191969
 H -6.3583265436 2.5522266347 14.331977084
 C -6.4494091337 1.6879477806 16.3073785317
 H -5.0119056958 1.4871149107 14.7102794839
 H 7.0218656966 10.4506266285 1.4488063384
 C 7.6074690515 11.7764460263 3.0257105378
 H 8.0239539771 12.9117450566 4.8229131377
 H -7.1308911996 2.4358110265 16.7280093505
 H -7.0468848389 0.8240007927 15.9999063564
 H -5.7758931555 1.3634071437 17.1084432028
 O 8.39699946 12.4446893177 2.1534785361
 C 9.1411852659 13.5552549968 2.6239850277
 H 8.4616738368 14.3136222465 3.0399308576
 C 9.9211638901 14.1234436912 1.4525038475
 H 9.8247618213 13.2372896973 3.4249103317
 H 9.2148852401 14.4025310877 0.6612732363
 H 10.5637536202 13.3353331072 1.0417525918
 C 10.7657385118 15.3336234975 1.8529795903
 H 10.1147217197 16.1112222041 2.2741763697
 C 11.5523414679 15.9101444863 0.6772133398
 H 11.4611441014 15.0462116151 2.6527612321
 H 10.8788705895 16.2345431611 -0.1239464138
 H 12.1497890051 16.7741492574 0.984577727
 H 12.2338580355 15.1622188724 0.2567488488

