40    

C    -3.615774   -0.061533   -7.159376
    H    -3.998299   -0.134683   -8.172841
    C    -2.368780   -0.602001   -6.836715
    C    -4.365564    0.573610   -6.166335
    H    -1.779908   -1.097396   -7.603497
    C    -1.872111   -0.513946   -5.547304
    C    -3.876261    0.665835   -4.875092
    H    -5.336519    0.997516   -6.405754
    H    -0.899997   -0.943578   -5.327382
    C    -2.614397    0.125799   -4.522245
    H    -4.466586    1.161912   -4.108469
    C    -2.158361    0.250685   -3.169614
    H    -2.840035    0.767658   -2.497533
    C    -0.958440   -0.217453   -2.661006
    H    -0.278845   -0.733876   -3.336020
    C    -0.508881   -0.094691   -1.328068
    C    -1.260540    0.553194   -0.286586
    C     0.764140   -0.635472   -0.958619
    H    -2.231996    0.981026   -0.509889
    C    -0.772679    0.640593    0.984083
    C     1.252025   -0.548024    0.312038
    H     1.353853   -1.130984   -1.726104
    H    -1.362456    1.135977    1.751600
    C     0.500427    0.099983    1.353490
    H     2.223358   -0.976104    0.535396
    C     0.950068    0.222949    2.686389
    H     0.270155    0.738766    3.361546
    C     2.150571   -0.243998    3.194725
    H     2.833082   -0.759348    2.522251
    C     2.606376   -0.119469    4.547465
    C     1.862457    0.517100    5.573316
    C     3.869648   -0.656651    4.899623
    H     0.889092    0.944210    5.354011
    C     2.358994    0.605004    6.862787
    C     4.358814   -0.564590    6.190933
    H     4.461219   -1.150304    4.132396
    H     1.768845    1.097910    7.630192
    C     3.607438    0.067467    7.184742
    H     5.330888   -0.986233    6.429804
    H     3.989837    0.140462    8.198266

