40
rl
     C  -3.571149  -0.090014  -7.050894
     H  -3.940722  -0.145492  -8.070867
     C  -2.339937  -0.659340  -6.717044
     C  -4.326552   0.545205  -6.062916
     H  -1.757353  -1.181455  -7.469827
     C  -1.849532  -0.579257  -5.425243
     C  -3.844717   0.624290  -4.767899
     H  -5.287358   0.987972  -6.307171
     H  -0.888366  -1.029768  -5.201373
     C  -2.587080   0.080745  -4.411614
     H  -4.425492   1.137569  -4.005846
     C  -2.113049   0.246354  -3.067960
     H  -2.791702   0.766511  -2.394361
     C  -0.890405  -0.177231  -2.580350
     H  -0.206174  -0.683882  -3.258970
     C  -0.434362  -0.037045  -1.247849
     C  -1.200457   0.591210  -0.207987
     C   0.833598  -0.579344  -0.878023
     H  -2.164203   1.034287  -0.433791
     C  -0.724907   0.650354   1.069907
     C   1.307561  -0.523230   0.401016
     H   1.422106  -1.073015  -1.646141
     H  -1.312558   1.145356   1.838377
     C   0.545203   0.112483   1.438870
     H   2.268772  -0.971370   0.628041
     C   0.999627   0.260331   2.771192
     H   0.308747   0.762552   3.445881
     C   2.220281  -0.156298   3.269281
     H   2.919521  -0.649466   2.596111
     C   2.656609  -0.032283   4.630754
     C   1.866189   0.550657   5.651971
     C   3.918257  -0.555934   5.001787
     H   0.897232   0.977441   5.417077
     C   2.310412   0.577635   6.962574
     C   4.355331  -0.526327   6.314846
     H   4.539049  -1.015412   4.237483
     H   1.682555   1.023168   7.728777
     C   3.549761   0.036471   7.308531
     H   5.321160  -0.956984   6.562165
     H   3.877221   0.059037   8.343504

