25
opt
     N  -0.431850  -0.831695  -0.326103
     C   0.522871   0.212265  -0.276740
     C  -1.519790  -0.518907  -1.135242
     S  -0.197976   1.723584  -0.818727
     C   1.444934   0.228574   0.879357
     C  -1.574521   0.835267  -1.484983
     C  -2.511808  -1.394446  -1.567802
     O   3.291657  -0.551989  -0.394780
     C   2.848106  -0.163277   0.699856
     C   1.006922   0.574929   2.149301
     C  -2.617105   1.333605  -2.252065
     C  -3.555115  -0.893506  -2.341938
     H  -2.469976  -2.446349  -1.302041
     C   3.711920  -0.108937   1.868110
     C   1.869555   0.599568   3.240040
     H  -0.035204   0.845032   2.285860
     H  -2.650930   2.384239  -2.522047
     C  -3.613451   0.457196  -2.680142
     H  -4.331590  -1.569422  -2.686007
     H   4.748647  -0.387219   1.711881
     C   3.234413   0.259232   3.091865
     H   1.494982   0.887826   4.216910
     H  -4.433339   0.831138  -3.284275
     H   3.890810   0.288892   3.955945
     H  -0.058143  -1.769494  -0.392107
