25
rl
     N  -0.355281  -0.692886  -0.462617
     C   0.006826   0.342032   0.340668
     C  -1.403987  -0.449138  -1.304984
     S  -1.064126   1.711282   0.128502
     C   1.137800   0.286319   1.221667
     C  -1.969348   0.823972  -1.095495
     C  -1.910764  -1.299645  -2.290334
     O   1.922553  -1.751353   0.238968
     C   2.080931  -0.844267   1.115986
     C   1.353234   1.255496   2.182402
     C  -3.072145   1.242296  -1.830158
     C  -2.987791  -0.858648  -3.044415
     H  -1.457707  -2.269934  -2.465207
     C   3.171651  -0.861558   2.026738
     C   2.477095   1.211143   3.046339
     H   0.648186   2.074004   2.291835
     H  -3.522429   2.214720  -1.655915
     C  -3.576956   0.388429  -2.808660
     H  -3.352650  -1.492481  -3.846907
     H   3.876392  -1.681599   1.922851
     C   3.372028   0.157693   2.971125
     H   2.611682   2.008308   3.770199
     H  -4.419969   0.708882  -3.411658
     H   4.225161   0.124737   3.639614
     H   0.335633  -1.464236  -0.490137
