25
rl
     N  -0.252510  -0.727082  -0.512205
     C   0.026846   0.252816   0.299979
     C  -1.357605  -0.452772  -1.294866
     H   1.111338  -1.773056  -0.169289
     S  -1.069331   1.635504   0.195423
     C   1.160595   0.223882   1.216751
     C  -1.958788   0.795150  -1.050116
     C  -1.866079  -1.290195  -2.290254
     O   1.933100  -1.907769   0.360830
     C   2.062416  -0.869019   1.195151
     C   1.382755   1.267417   2.128460
     C  -3.075632   1.215108  -1.772409
     C  -2.958736  -0.863862  -3.025956
     H  -1.392237  -2.247290  -2.481206
     C   3.150570  -0.878065   2.077651
     C   2.451647   1.244335   3.002768
     H   0.698803   2.110273   2.151726
     H  -3.544665   2.174285  -1.575979
     C  -3.563918   0.373772  -2.763081
     H  -3.325375  -1.490203  -3.833514
     H   3.832370  -1.721516   2.031568
     C   3.336927   0.163188   2.970677
     H   2.594281   2.058630   3.704802
     H  -4.416264   0.690212  -3.355988
     H   4.179503   0.142196   3.654410
