25

   N     -0.20346800     -0.69354400     -0.55709900
   C      0.04582400      0.26238500      0.29120200
   C     -1.31470500     -0.42554300     -1.33522300
   H      1.11878500     -1.78959100     -0.14630900
   S     -1.08377600      1.61896600      0.21958000
   C      1.16341600      0.22694100      1.22880700
   C     -1.94173500      0.80190200     -1.06054200
   C     -1.82666700     -1.26266000     -2.33081100
   O      1.90443500     -1.93961100      0.43034100
   C      2.03848400     -0.88664400      1.24301000
   C      1.39649900      1.28084400      2.12766700
   C     -3.07391100      1.21244000     -1.76211600
   C     -2.95160300     -0.85583500     -3.02873100
   H     -1.33828500     -2.20883400     -2.53837200
   C      3.10770100     -0.90610600      2.14917800
   C      2.45300900      1.25237900      3.01707100
   H      0.72988900      2.13960700      2.12378800
   H     -3.55417000      2.16110500     -1.54613400
   C     -3.57030300      0.37090600     -2.74730200
   H     -3.36120100     -1.49459600     -3.80479900
   H      3.76269900     -1.77062400      2.13917900
   C      3.31045900      0.14685100      3.02139300
   H      2.61321800      2.07790400      3.70201000
   H     -4.45107600      0.66842100     -3.30753400
   H      4.14509500      0.11141400      3.71533600
